include omnetpp.ini

# -------- Secure ----------
[Config Secure5]
extends = SecureMode
LightIoTNetwork.numSensorNodes = 5
**.gateway.securityEnabled = true
**.gateway.hmacWindow = 1s
**.gateway.procDelay = 1ms
**.gateway.costForward_mJ = 5
**.gateway.costVerify_mJ  = 5
**.gateway.batteryInit_mJ = 5000
sim-time-limit = 10s

[Config Secure20]
extends = SecureMode
LightIoTNetwork.numSensorNodes = 20
**.gateway.securityEnabled = true
**.gateway.hmacWindow = 1s
**.gateway.procDelay = 1ms
**.gateway.costForward_mJ = 5
**.gateway.costVerify_mJ  = 5
**.gateway.batteryInit_mJ = 5000
sim-time-limit = 10s

[Config Secure50]
extends = SecureMode
LightIoTNetwork.numSensorNodes = 50
**.gateway.securityEnabled = true
**.gateway.hmacWindow = 1s
**.gateway.procDelay = 1ms
**.gateway.costForward_mJ = 5
**.gateway.costVerify_mJ  = 5
**.gateway.batteryInit_mJ = 5000
sim-time-limit = 10s

# -------- NoSecurity ----------
[Config NoSec5]
extends = NoSecurityMode
LightIoTNetwork.numSensorNodes = 5
**.gateway.securityEnabled = false
**.gateway.procDelay = 0s
**.gateway.costForward_mJ = 5
**.gateway.costVerify_mJ  = 0
**.gateway.batteryInit_mJ = 5000
sim-time-limit = 10s

[Config NoSec20]
extends = NoSecurityMode
LightIoTNetwork.numSensorNodes = 20
**.gateway.securityEnabled = false
**.gateway.procDelay = 0s
**.gateway.costForward_mJ = 5
**.gateway.costVerify_mJ  = 0
**.gateway.batteryInit_mJ = 5000
sim-time-limit = 10s

[Config NoSec50]
extends = NoSecurityMode
LightIoTNetwork.numSensorNodes = 50
**.gateway.securityEnabled = false
**.gateway.procDelay = 0s
**.gateway.costForward_mJ = 5
**.gateway.costVerify_mJ  = 0
**.gateway.batteryInit_mJ = 5000
sim-time-limit = 10s

# -------- Attack on Secure (Replay) ----------
[Config Attack5]
extends = ReplayAttackMode
LightIoTNetwork.numSensorNodes = 5
**.sensor[*].mode = "Secure"
**.gateway.securityEnabled = true
**.gateway.hmacWindow = 1s
**.gateway.procDelay = 1ms
**.gateway.costForward_mJ = 5
**.gateway.costVerify_mJ  = 5
**.gateway.batteryInit_mJ = 5000
**.fakeNode.enabled = true
**.fakeNode.attackMode = "replay"
**.fakeNode.replayInterval = 2.5s
sim-time-limit = 10s

[Config Attack20]
extends = ReplayAttackMode
LightIoTNetwork.numSensorNodes = 20
**.sensor[*].mode = "Secure"
**.gateway.securityEnabled = true
**.gateway.hmacWindow = 1s
**.gateway.procDelay = 1ms
**.gateway.costForward_mJ = 5
**.gateway.costVerify_mJ  = 5
**.gateway.batteryInit_mJ = 5000
**.fakeNode.enabled = true
**.fakeNode.attackMode = "replay"
**.fakeNode.replayInterval = 2.5s
sim-time-limit = 10s

[Config Attack50]
extends = ReplayAttackMode
LightIoTNetwork.numSensorNodes = 50
**.sensor[*].mode = "Secure"
**.gateway.securityEnabled = true
**.gateway.hmacWindow = 1s
**.gateway.procDelay = 1ms
**.gateway.costForward_mJ = 5
**.gateway.costVerify_mJ  = 5
**.gateway.batteryInit_mJ = 5000
**.fakeNode.enabled = true
**.fakeNode.attackMode = "replay"
**.fakeNode.replayInterval = 2.5s
sim-time-limit = 10s
