include omnetpp.ini
[Config Secure50_metrics]
extends = SecureMode
LightIoTNetwork.numSensorNodes = 50
**.gateway.securityEnabled = true
**.gateway.hmacWindow = 1s
**.gateway.procDelay = 1ms
**.gateway.costForward_mJ = 5
**.gateway.costVerify_mJ  = 5
**.gateway.batteryInit_mJ = 5000
sim-time-limit = 10s
