include omnetpp.ini

[Config Secure]
extends = SecureMode
**.gateway.securityEnabled = true
**.gateway.hmacWindow = 1s
**.gateway.procDelay = 1ms
**.gateway.costForward_mJ = 5
**.gateway.costVerify_mJ  = 5
**.gateway.batteryInit_mJ = 5000
sim-time-limit = 10s

[Config NoSec]
extends = NoSecurityMode
**.gateway.securityEnabled = false
**.gateway.procDelay = 0s
**.gateway.costForward_mJ = 5
**.gateway.costVerify_mJ  = 0
**.gateway.batteryInit_mJ = 5000
sim-time-limit = 10s
